/*--------------------------------*- C++ -*----------------------------------*\
  =========                 |
  \\      /  F ield         | OpenFOAM: The Open Source CFD Toolbox
   \\    /   O peration     | Website:  https://openfoam.org
    \\  /    A nd           | Version:  6
     \\/     M anipulation  |
\*---------------------------------------------------------------------------*/
FoamFile
{
    version     2.0;
    format      ascii;
    class       polyBoundaryMesh;
    location    "constant/polyMesh";
    object      boundary;
}
// * * * * * * * * * * * * * * * * * * * * * * * * * * * * * * * * * * * * * //

3
(
    frontAndBack
    {
        type            empty;
        physicalType    empty;
        nFaces          24648;
        startFace       20650;
    }
    cylinder
    {
        type            wall;
        physicalType    wall;
        nFaces          244;
        startFace       45298;
    }
    domain_boundary
    {
        type            patch;
        physicalType    patch;
        nFaces          64;
        startFace       45542;
    }
)

// ************************************************************************* //
